cases/MemphisCase2026_Mar7.RAW
@!IC, SBASE,REV,XFRRAT,NXFRAT,BASFRQ
0,    100.00, 35, 0, 0, 60.00       / March 07, 2026 12:56:35; Simulator Version 24; BuildDate 2025_3_14
This is a synthetic electric grid model which does not contain CEII and does not represent any actual electric grid.
J. Baek and A. B. Birchfield, “Dynamic performance design and validation in large, IBR-heavy synthetic grids,” Energies, vol. 18, no. 15, 
GENERAL, THRSHZ=0.0002, PQBRAK=0.7, BLOWUP=5.0
GAUSS, ITMX=100, ACCP=1.6, ACCQ=1.6, ACCM=1.0, TOL=0.0001
NEWTON, ITMXN=50, ACCN=1.0, TOLN=0.1, VCTOLQ=0.1, VCTOLV=0.00001, DVLIM=0.99, NDVFCT=0.99
ADJUST, ADJTHR=0.005, ACCTAP=1.0, TAPLIM=0.05, SWVBND=100.0, MXTPSS=99, MXSWIM=10
TYSL, ITMXTY=20, ACCTY=1.0, TOLTY=0.00001
SOLVER, FNSL, ACTAPS=1, AREAIN=2, PHSHFT=1, DCTAPS=1, SWSHNT=1, FLATST=0, VARLIM=0, NONDIV=0
RATING, 1, "      ", "                                "
RATING, 2, "      ", "                                "
RATING, 3, "      ", "                                "
RATING, 4, "      ", "                                "
RATING, 5, "      ", "                                "
RATING, 6, "      ", "                                "
RATING, 7, "      ", "                                "
RATING, 8, "      ", "                                "
RATING, 9, "      ", "                                "
RATING,10, "      ", "                                "
RATING,11, "      ", "                                "
RATING,12, "      ", "                                "
0 / END OF SYSTEM-WIDE DATA, BEGIN BUS DATA
@!   I,'NAME        ', BASKV, IDE,AREA,ZONE,OWNER, VM,        VA,    NVHI,   NVLO,   EVHI,   EVLO
     2,'Greers Fer~1', 138.0000,1,   2,   1,   1,1.01770, -30.3369,1.10000,0.90000,1.10000,0.90000
     3,'Greers Fer~2',  69.0000,1,   2,   1,   1,1.00618, -33.8213,1.10000,0.90000,1.10000,0.90000
     4,'Marion_138  ', 138.0000,1,   3,   1,   1,1.04000, -38.2067,1.10000,0.90000,1.10000,0.90000
     5,'Marion_69   ',  69.0000,1,   3,   1,   1,1.03000, -43.8925,1.10000,0.90000,1.10000,0.90000
     6,'Barkley_138 ', 138.0000,1,   3,   1,   1,1.03732, -33.5991,1.10000,0.90000,1.10000,0.90000
     7,'Barkley_69  ',  69.0000,1,   3,   1,   1,1.02897, -37.0464,1.10000,0.90000,1.10000,0.90000
     8,'Kentucky D~2', 345.0000,1,   3,   1,   1,1.04000, -19.4409,1.10000,0.90000,1.10000,0.90000
     9,'Kentucky D~1', 138.0000,1,   3,   1,   1,1.03418, -33.6960,1.10000,0.90000,1.10000,0.90000
    10,'Kentucky D~3',  69.0000,1,   3,   1,   1,1.02840, -37.0768,1.10000,0.90000,1.10000,0.90000
    11,'Shawnee_345 ', 345.0000,1,   3,   1,   1,1.04000, -19.2455,1.10000,0.90000,1.10000,0.90000
    12,'Shawnee_138 ', 138.0000,1,   3,   1,   1,1.02810, -34.0551,1.10000,0.90000,1.10000,0.90000
    13,'Shawnee_69  ',  69.0000,1,   3,   1,   1,0.99653, -41.1629,1.10000,0.90000,1.10000,0.90000
    14,'L L Wilkin~2', 345.0000,1,   1,   1,   1,1.04098, -22.6309,1.10000,0.90000,1.10000,0.90000
    15,'L L Wilkin~1', 138.0000,1,   1,   1,   1,1.03998, -35.0474,1.10000,0.90000,1.10000,0.90000
    16,'L L Wilkin~3',  69.0000,1,   1,   1,   1,1.03679, -37.8663,1.10000,0.90000,1.10000,0.90000
    18,'Taum Sauk_~1', 138.0000,1,   4,   1,   1,1.05726, -40.3903,1.10000,0.90000,1.10000,0.90000
    19,'Taum Sauk_69',  69.0000,1,   4,   1,   1,1.04576, -45.2102,1.10000,0.90000,1.10000,0.90000
    20,'Jackson (M~1',  69.0000,1,   4,   1,   1,1.02429, -50.2077,1.10000,0.90000,1.10000,0.90000
    21,'Kennett_69  ',  69.0000,1,   4,   1,   1,1.03150, -43.5119,1.10000,0.90000,1.10000,0.90000
    22,'New Madrid~2', 345.0000,1,   4,   1,   1,1.04000, -18.5236,1.10000,0.90000,1.10000,0.90000
    23,'NEW MADRID~1', 138.0000,1,   4,   1,   1,1.03561, -38.8686,1.10000,0.90000,1.10000,0.90000
    24,'NEW MADRID~3',  69.0000,1,   4,   1,   1,1.03032, -41.0711,1.10000,0.90000,1.10000,0.90000
    25,'Allen_345   ', 345.0000,1,   1,   1,   1,1.05000, -24.8898,1.10000,0.90000,1.10000,0.90000
    26,'Allen_138   ', 138.0000,1,   1,   1,   1,1.02938, -43.3155,1.10000,0.90000,1.10000,0.90000
    27,'Allen_69    ',  69.0000,1,   1,   1,   1,1.01073, -46.0324,1.10000,0.90000,1.10000,0.90000
    28,'Pickwick L~1', 138.0000,1,   1,   1,   1,1.03182, -39.1996,1.10000,0.90000,1.10000,0.90000
    29,'Pickwick L~2',  69.0000,1,   1,   1,   1,1.01199, -43.6803,1.10000,0.90000,1.10000,0.90000
    30,'Independen~2', 345.0000,1,   2,   1,   1,1.06000,  -7.6764,1.10000,0.90000,1.10000,0.90000
    31,'Independen~1', 138.0000,1,   2,   1,   1,1.03149, -30.0045,1.10000,0.90000,1.10000,0.90000
    32,'Independen~3',  69.0000,1,   2,   1,   1,1.02951, -36.0175,1.10000,0.90000,1.10000,0.90000
    33,'Sikeston P~1', 138.0000,1,   4,   1,   1,1.04554, -39.5091,1.10000,0.90000,1.10000,0.90000
    34,'Sikeston P~2',  69.0000,1,   4,   1,   1,1.04226, -41.2042,1.10000,0.90000,1.10000,0.90000
    35,'Poplar Blu~3',  69.0000,1,   4,   1,   1,1.03553, -43.0777,1.10000,0.90000,1.10000,0.90000
    36,'St Francis~2', 345.0000,1,   4,   1,   1,1.04053, -19.1851,1.10000,0.90000,1.10000,0.90000
    37,'St Francis~1', 138.0000,1,   4,   1,   1,1.04046, -39.0297,1.10000,0.90000,1.10000,0.90000
    38,'St Francis~3',  69.0000,1,   4,   1,   1,1.03868, -41.2705,1.10000,0.90000,1.10000,0.90000
    39,'Essex_345   ', 345.0000,1,   4,   1,   1,1.04118, -19.2754,1.10000,0.90000,1.10000,0.90000
    40,'Essex_138   ', 138.0000,1,   4,   1,   1,1.05000, -39.2763,1.10000,0.90000,1.10000,0.90000
    41,'ESSEX_69    ',  69.0000,1,   4,   1,   1,1.03891, -42.4950,1.10000,0.90000,1.10000,0.90000
    42,'Lagoon Cre~2', 345.0000,1,   1,   1,   1,1.04225, -20.0572,1.10000,0.90000,1.10000,0.90000
    43,'Lagoon Cre~1', 138.0000,1,   1,   1,   1,1.02234, -41.0962,1.10000,0.90000,1.10000,0.90000
    44,'Lagoon Cre~3',  69.0000,1,   1,   1,   1,1.01735, -43.6690,1.10000,0.90000,1.10000,0.90000
    45,'Paragould ~1',  69.0000,1,   2,   1,   1,1.03200, -40.8547,1.10000,0.90000,1.10000,0.90000
    46,'Pine Bluff~6', 138.0000,1,   2,   1,   1,1.02988, -27.5189,1.10000,0.90000,1.10000,0.90000
    47,'Pine Bluff~7',  69.0000,1,   2,   1,   1,1.02361, -29.6410,1.10000,0.90000,1.10000,0.90000
    48,'Packaging ~2', 345.0000,1,   1,   1,   1,1.04185, -24.9917,1.10000,0.90000,1.10000,0.90000
    49,'Packaging ~1', 138.0000,1,   1,   1,   1,1.02981, -39.3857,1.10000,0.90000,1.10000,0.90000
    50,'Packaging ~3',  69.0000,1,   1,   1,   1,1.01612, -43.6616,1.10000,0.90000,1.10000,0.90000
    51,'Batesville~4', 345.0000,1,   1,   1,   1,1.04000, -20.9153,1.10000,0.90000,1.10000,0.90000
    52,'Batesville~3', 138.0000,1,   1,   1,   1,1.01332, -42.0857,1.10000,0.90000,1.10000,0.90000
    53,'Batesville~5',  69.0000,1,   1,   1,   1,1.01904, -45.3921,1.10000,0.90000,1.10000,0.90000
    54,'Pine Bluff~2', 345.0000,1,   2,   1,   1,1.06424, -20.3512,1.10000,0.90000,1.10000,0.90000
    55,'Pine Bluff~1', 138.0000,1,   2,   1,   1,1.03000, -27.4220,1.10000,0.90000,1.10000,0.90000
    56,'Pine Bluff~3',  69.0000,1,   2,   1,   1,1.02346, -29.6642,1.10000,0.90000,1.10000,0.90000
    57,'Brownsvill~2', 345.0000,1,   1,   1,   1,1.04419, -21.2158,1.10000,0.90000,1.10000,0.90000
    58,'Brownsvill~1', 138.0000,1,   1,   1,   1,1.02375, -40.1751,1.10000,0.90000,1.10000,0.90000
    59,'Brownsvill~3',  69.0000,1,   1,   1,   1,1.00780, -45.0811,1.10000,0.90000,1.10000,0.90000
    60,'Marshall E~2', 345.0000,1,   3,   1,   1,1.04000, -19.5208,1.10000,0.90000,1.10000,0.90000
    61,'Marshall E~1', 138.0000,1,   3,   1,   1,1.03256, -33.9323,1.10000,0.90000,1.10000,0.90000
    62,'Marshall E~3',  69.0000,1,   3,   1,   1,1.02602, -37.4573,1.10000,0.90000,1.10000,0.90000
    63,'Gleason Ge~2', 345.0000,1,   1,   1,   1,1.04000, -22.5260,1.10000,0.90000,1.10000,0.90000
    64,'Gleason Ge~1', 138.0000,1,   1,   1,   1,1.01279, -39.9866,1.10000,0.90000,1.10000,0.90000
    65,'Gleason Ge~3',  69.0000,1,   1,   1,   1,1.01103, -45.2137,1.10000,0.90000,1.10000,0.90000
    66,'TVA Southa~2', 345.0000,1,   1,   1,   1,1.05200, -23.8716,1.10000,0.90000,1.10000,0.90000
    67,'TVA Southa~1', 138.0000,1,   1,   1,   1,1.03000, -42.4451,1.10000,0.90000,1.10000,0.90000
    68,'TVA Southa~3',  69.0000,1,   1,   1,   1,1.01293, -46.5660,1.10000,0.90000,1.10000,0.90000
    69,'CALVERT CI~2',  69.0000,1,   3,   1,   1,1.03007, -37.2706,1.10000,0.90000,1.10000,0.90000
    70,'Dell Power~2', 345.0000,1,   2,   1,   1,1.04416, -16.3839,1.10000,0.90000,1.10000,0.90000
    71,'Dell Power~1', 138.0000,1,   2,   1,   1,1.03141, -32.6508,1.10000,0.90000,1.10000,0.90000
    72,'Dell Power~3',  69.0000,1,   2,   1,   1,1.02467, -35.4117,1.10000,0.90000,1.10000,0.90000
    73,'Crossroads~2', 345.0000,1,   1,   1,   1,1.04094, -22.6297,1.10000,0.90000,1.10000,0.90000
    74,'Crossroads~1', 138.0000,1,   1,   1,   1,1.04002, -35.0492,1.10000,0.90000,1.10000,0.90000
    75,'Crossroads~3',  69.0000,1,   1,   1,   1,1.03672, -37.8858,1.10000,0.90000,1.10000,0.90000
    76,'Magnolia P~2', 345.0000,1,   1,   1,   1,1.04000, -19.8370,1.10000,0.90000,1.10000,0.90000
    77,'Magnolia P~1', 138.0000,1,   1,   1,   1,1.01862, -42.4694,1.10000,0.90000,1.10000,0.90000
    78,'Magnolia P~3',  69.0000,1,   1,   1,   1,1.00409, -45.6566,1.10000,0.90000,1.10000,0.90000
    79,'Plum Point~2', 345.0000,1,   2,   1,   1,1.04797, -17.0507,1.10000,0.90000,1.10000,0.90000
    80,'Plum Point~1', 138.0000,1,   2,   1,   1,1.03600, -31.4638,1.10000,0.90000,1.10000,0.90000
    81,'Plum Point~3',  69.0000,1,   2,   1,   1,1.02980, -35.2433,1.10000,0.90000,1.10000,0.90000
    82,'Jonesboro~11', 138.0000,1,   2,   1,   1,1.04000, -36.4346,1.10000,0.90000,1.10000,0.90000
    83,'Jonesboro~12',  69.0000,1,   2,   1,   1,1.03000, -39.9843,1.10000,0.90000,1.10000,0.90000
    84,'PPS Power ~1', 138.0000,1,   3,   1,   1,1.03026, -35.3134,1.10000,0.90000,1.10000,0.90000
    85,'PPS Power ~2',  69.0000,1,   3,   1,   1,1.02494, -36.9437,1.10000,0.90000,1.10000,0.90000
    86,'Smithland ~1', 138.0000,1,   3,   1,   1,1.03514, -35.6836,1.10000,0.90000,1.10000,0.90000
    87,'Smithland ~2',  69.0000,1,   3,   1,   1,1.02757, -37.9930,1.10000,0.90000,1.10000,0.90000
    88,'Frederickt~2',  69.0000,1,   4,   1,   1,1.03524, -48.0230,1.10000,0.90000,1.10000,0.90000
    89,'Mulberry F~1',  69.0000,1,   1,   1,   1,0.99346, -45.4016,1.10000,0.90000,1.10000,0.90000
    90,'Selmer Far~1', 138.0000,1,   1,   1,   1,1.02130, -40.3709,1.10000,0.90000,1.10000,0.90000
    91,'Selmer Far~2',  69.0000,1,   1,   1,   1,0.99909, -44.8859,1.10000,0.90000,1.10000,0.90000
    92,'City of We~1', 138.0000,1,   4,   1,   1,1.03690, -39.4243,1.10000,0.90000,1.10000,0.90000
    93,'City of We~2',  69.0000,1,   4,   1,   1,1.02508, -43.4946,1.10000,0.90000,1.10000,0.90000
    94,'Providence~1',  69.0000,1,   1,   1,   1,1.00315, -44.5723,1.10000,0.90000,1.10000,0.90000
    95,'Selmer I_69 ',  69.0000,1,   1,   1,   1,0.99920, -44.8864,1.10000,0.90000,1.10000,0.90000
    96,'Selmer II_69',  69.0000,1,   1,   1,   1,0.99348, -45.2262,1.10000,0.90000,1.10000,0.90000
    97,'Millington~1', 138.0000,1,   1,   1,   1,1.04000, -46.6865,1.10000,0.90000,1.10000,0.90000
    98,'Millington~2',  69.0000,1,   1,   1,   1,1.01913, -49.4966,1.10000,0.90000,1.10000,0.90000
    99,'Stuttgart ~1', 138.0000,1,   2,   1,   1,1.03137, -33.3988,1.10000,0.90000,1.10000,0.90000
   100,'Stuttgart ~2',  69.0000,1,   2,   1,   1,1.01984, -36.6749,1.10000,0.90000,1.10000,0.90000
   101,'Latitude S~1', 138.0000,1,   1,   1,   1,1.02306, -42.9564,1.10000,0.90000,1.10000,0.90000
   102,'Latitude S~2',  69.0000,1,   1,   1,   1,1.00499, -45.5201,1.10000,0.90000,1.10000,0.90000
   103,'Searcy Sol~1', 138.0000,1,   2,   1,   1,1.03097, -31.4701,1.10000,0.90000,1.10000,0.90000
   104,'Searcy Sol~2',  69.0000,1,   2,   1,   1,1.02734, -33.3445,1.10000,0.90000,1.10000,0.90000
   105,'Wildberry_~1', 138.0000,1,   1,   1,   1,1.03200, -44.3785,1.10000,0.90000,1.10000,0.90000
   106,'Wildberry_69',  69.0000,1,   1,   1,   1,1.01633, -45.7837,1.10000,0.90000,1.10000,0.90000
   107,'Happy Sola~1', 138.0000,1,   2,   1,   1,1.03328, -31.5138,1.10000,0.90000,1.10000,0.90000
   108,'Happy Sola~2',  69.0000,1,   2,   1,   1,1.03259, -32.7811,1.10000,0.90000,1.10000,0.90000
   109,'OETN1_138   ', 138.0000,1,   1,   1,   1,1.02996, -41.4602,1.10000,0.90000,1.10000,0.90000
   110,'OETN1_69    ',  69.0000,1,   1,   1,   1,1.02298, -43.1015,1.10000,0.90000,1.10000,0.90000
   111,'West Plain~1',  69.0000,1,   4,   1,   1,1.01945, -44.9577,1.10000,0.90000,1.10000,0.90000
   112,'West Memph~1', 138.0000,1,   2,   1,   1,1.02493, -37.4072,1.10000,0.90000,1.10000,0.90000
   113,'West Memph~2',  69.0000,1,   2,   1,   1,0.99481, -40.5770,1.10000,0.90000,1.10000,0.90000
   114,'Big Cypres~1', 138.0000,1,   2,   1,   1,1.02858, -36.8982,1.10000,0.90000,1.10000,0.90000
   115,'Big Cypres~2',  69.0000,1,   2,   1,   1,1.00875, -38.4835,1.10000,0.90000,1.10000,0.90000
   116,'SR McKella~1', 138.0000,1,   1,   1,   1,0.99630, -41.5928,1.10000,0.90000,1.10000,0.90000
   117,'SR McKella~2',  69.0000,1,   1,   1,   1,0.99857, -44.0636,1.10000,0.90000,1.10000,0.90000
   118,'SR Paris_69 ',  69.0000,1,   1,   1,   1,1.01419, -47.6445,1.10000,0.90000,1.10000,0.90000
   119,'Driver Sol~1', 138.0000,1,   2,   1,   1,1.03678, -31.4001,1.10000,0.90000,1.10000,0.90000
   120,'Driver Sol~2',  69.0000,1,   2,   1,   1,1.03378, -34.4210,1.10000,0.90000,1.10000,0.90000
   121,'Delta Wind~1', 138.0000,1,   1,   1,   1,1.04995, -37.3515,1.10000,0.90000,1.10000,0.90000
   122,'Delta Wind~2',  69.0000,1,   1,   1,   1,1.04388, -40.1830,1.10000,0.90000,1.10000,0.90000
   123,'Newport So~1', 138.0000,1,   2,   1,   1,1.04000, -33.0823,1.10000,0.90000,1.10000,0.90000
   124,'Newport So~2',  69.0000,1,   2,   1,   1,1.02899, -36.4902,1.10000,0.90000,1.10000,0.90000
   125,'Crooked La~1', 138.0000,1,   2,   1,   1,1.04001, -30.3482,1.10000,0.90000,1.10000,0.90000
   126,'Crooked La~2',  69.0000,1,   2,   1,   1,1.03439, -33.7984,1.10000,0.90000,1.10000,0.90000
   127,'Woodruff C~1', 138.0000,1,   2,   1,   1,1.03423, -31.4660,1.10000,0.90000,1.10000,0.90000
   128,'Woodruff C~2',  69.0000,1,   2,   1,   1,1.01875, -34.8292,1.10000,0.90000,1.10000,0.90000
   129,'Wildflower~2', 345.0000,1,   1,   1,   1,1.04777, -25.0498,1.10000,0.90000,1.10000,0.90000
   130,'Wildflower~1', 138.0000,1,   1,   1,   1,1.02921, -43.3005,1.10000,0.90000,1.10000,0.90000
   131,'Wildflower~3',  69.0000,1,   1,   1,   1,1.01477, -45.8445,1.10000,0.90000,1.10000,0.90000
   132,'SR Canadav~1', 138.0000,1,   1,   1,   1,1.03801, -45.9396,1.10000,0.90000,1.10000,0.90000
   133,'SR Canadav~2',  69.0000,1,   1,   1,   1,1.02361, -48.4009,1.10000,0.90000,1.10000,0.90000
   134,'Jonesboro~18',  69.0000,1,   2,   1,   1,1.03034, -45.9742,1.10000,0.90000,1.10000,0.90000
   135,'Walnut Ben~1', 138.0000,1,   2,   1,   1,1.03980, -36.0163,1.10000,0.90000,1.10000,0.90000
   136,'Walnut Ben~2',  69.0000,1,   2,   1,   1,1.04130, -38.3096,1.10000,0.90000,1.10000,0.90000
   137,'CHERRYVILL~1',  69.0000,1,   4,   1,   1,1.03000, -50.1220,1.10000,0.90000,1.10000,0.90000
   138,'BIGGERS_69  ',  69.0000,1,   2,   1,   1,1.03000, -42.8252,1.10000,0.90000,1.10000,0.90000
   139,'OLMSTED_69  ',  69.0000,1,   3,   1,   1,0.97841, -44.3963,1.10000,0.90000,1.10000,0.90000
   140,'VIOLET HIL~1',  69.0000,1,   2,   1,   1,1.01687, -41.5242,1.10000,0.90000,1.10000,0.90000
   141,'CENTERVILL~1',  69.0000,1,   4,   1,   1,1.03745, -46.3948,1.10000,0.90000,1.10000,0.90000
   142,'ALTO PASS_69',  69.0000,1,   3,   1,   1,1.00874, -47.8009,1.10000,0.90000,1.10000,0.90000
   143,'PATTERSON_69',  69.0000,1,   4,   1,   1,1.00580, -46.6530,1.10000,0.90000,1.10000,0.90000
   144,'MOUNT PLEA~1',  69.0000,1,   2,   1,   1,1.01262, -39.0017,1.10000,0.90000,1.10000,0.90000
   145,'MALDEN_69   ',  69.0000,1,   4,   1,   1,1.02294, -42.2914,1.10000,0.90000,1.10000,0.90000
   146,'ALTENBURG_69',  69.0000,1,   4,   1,   1,1.02052, -48.3460,1.10000,0.90000,1.10000,0.90000
   147,'KARNAK_69   ',  69.0000,1,   3,   1,   1,0.98780, -43.1066,1.10000,0.90000,1.10000,0.90000
   148,'EQUALITY_69 ',  69.0000,1,   3,   1,   1,1.01864, -43.6171,1.10000,0.90000,1.10000,0.90000
   149,'CARDWELL_69 ',  69.0000,1,   4,   1,   1,1.02477, -43.6145,1.10000,0.90000,1.10000,0.90000
   150,'OXFORD_69   ',  69.0000,1,   2,   1,   1,1.02025, -41.8243,1.10000,0.90000,1.10000,0.90000
   151,'CONCORD_69  ',  69.0000,1,   2,   1,   1,1.00698, -34.9290,1.10000,0.90000,1.10000,0.90000
   152,'JACKSON_69  ',  69.0000,1,   4,   1,   1,1.01571, -47.7444,1.10000,0.90000,1.10000,0.90000
   153,'FROHNA_69   ',  69.0000,1,   4,   1,   1,1.02067, -48.8216,1.10000,0.90000,1.10000,0.90000
   154,'BELGRADE_69 ',  69.0000,1,   4,   1,   1,1.04009, -46.6390,1.10000,0.90000,1.10000,0.90000
   155,'MARMADUKE_69',  69.0000,1,   2,   1,   1,1.02021, -41.4290,1.10000,0.90000,1.10000,0.90000
   156,'COTTAGE GR~1',  69.0000,1,   1,   1,   1,1.00773, -45.8655,1.10000,0.90000,1.10000,0.90000
   157,'THEBES_69   ',  69.0000,1,   3,   1,   1,0.97408, -44.5878,1.10000,0.90000,1.10000,0.90000
   158,'ALTHEIMER_69',  69.0000,1,   2,   1,   1,1.00500, -37.0503,1.10000,0.90000,1.10000,0.90000
   159,'CUNNINGHAM~1',  69.0000,1,   3,   1,   1,0.99036, -42.3912,1.10000,0.90000,1.10000,0.90000
   160,'KOSHKONONG~1',  69.0000,1,   4,   1,   1,1.02028, -43.9750,1.10000,0.90000,1.10000,0.90000
   161,'JOINER_69   ',  69.0000,1,   2,   1,   1,1.00842, -37.5745,1.10000,0.90000,1.10000,0.90000
   162,'POCAHONTAS~2',  69.0000,1,   1,   1,   1,0.98870, -46.1017,1.10000,0.90000,1.10000,0.90000
   163,'SWIFTON_69  ',  69.0000,1,   2,   1,   1,1.02660, -37.1954,1.10000,0.90000,1.10000,0.90000
   164,'NAYLOR_69   ',  69.0000,1,   4,   1,   1,1.01593, -45.6214,1.10000,0.90000,1.10000,0.90000
   165,'HUMPHREY_69 ',  69.0000,1,   2,   1,   1,1.00954, -36.4203,1.10000,0.90000,1.10000,0.90000
   166,'FARMINGTON~3',  69.0000,1,   3,   1,   1,1.01719, -42.0244,1.10000,0.90000,1.10000,0.90000
   167,'CAMPBELL H~1',  69.0000,1,   3,   1,   1,0.99486, -48.4377,1.10000,0.90000,1.10000,0.90000
   168,'HOUSTON_69  ',  69.0000,1,   4,   1,   1,1.02733, -49.5015,1.10000,0.90000,1.10000,0.90000
   169,'MORRIS CHA~1',  69.0000,1,   1,   1,   1,0.99807, -45.4795,1.10000,0.90000,1.10000,0.90000
   170,'HOLLY GROV~1',  69.0000,1,   2,   1,   1,1.01875, -41.0694,1.10000,0.90000,1.10000,0.90000
   171,'DENMARK_69  ',  69.0000,1,   1,   1,   1,0.99885, -44.6371,1.10000,0.90000,1.10000,0.90000
   172,'STRAWBERRY~1',  69.0000,1,   2,   1,   1,1.00975, -39.5220,1.10000,0.90000,1.10000,0.90000
   173,'ENVILLE_69  ',  69.0000,1,   1,   1,   1,0.99711, -47.0287,1.10000,0.90000,1.10000,0.90000
   174,'ENID_69     ',  69.0000,1,   1,   1,   1,1.01942, -46.7101,1.10000,0.90000,1.10000,0.90000
   175,'PARK HILLS~1',  69.0000,1,   4,   1,   1,1.00907, -47.4182,1.10000,0.90000,1.10000,0.90000
   176,'DUMAS_69    ',  69.0000,1,   1,   1,   1,1.02474, -48.4756,1.10000,0.90000,1.10000,0.90000
   177,'CAIRO_69    ',  69.0000,1,   3,   1,   1,0.97691, -44.1702,1.10000,0.90000,1.10000,0.90000
   178,'SEDGEWICKV~1',  69.0000,1,   4,   1,   1,1.01439, -49.6700,1.10000,0.90000,1.10000,0.90000
   179,'GIDEON_69   ',  69.0000,1,   4,   1,   1,1.02633, -42.3536,1.10000,0.90000,1.10000,0.90000
   180,'OAKFIELD_69 ',  69.0000,1,   1,   1,   1,0.98561, -46.7243,1.10000,0.90000,1.10000,0.90000
   181,'ELIZABETHT~2',  69.0000,1,   3,   1,   1,1.01422, -42.9852,1.10000,0.90000,1.10000,0.90000
   182,'BROSELEY_69 ',  69.0000,1,   4,   1,   1,1.03438, -42.0958,1.10000,0.90000,1.10000,0.90000
   183,'CLARKSDALE~3',  69.0000,1,   1,   1,   1,1.01816, -40.2863,1.10000,0.90000,1.10000,0.90000
   184,'JACKSON 1_69',  69.0000,1,   4,   1,   1,1.01525, -48.8836,1.10000,0.90000,1.10000,0.90000
   185,'RIDGWAY_69  ',  69.0000,1,   3,   1,   1,1.03373, -44.2885,1.10000,0.90000,1.10000,0.90000
   186,'FISK_69     ',  69.0000,1,   4,   1,   1,1.03311, -42.4604,1.10000,0.90000,1.10000,0.90000
   187,'GADSDEN_69  ',  69.0000,1,   1,   1,   1,0.99023, -45.5639,1.10000,0.90000,1.10000,0.90000
   188,'BUNCOMBE_69 ',  69.0000,1,   3,   1,   1,0.98858, -45.1087,1.10000,0.90000,1.10000,0.90000
   189,'ESSEX_69    ',  69.0000,1,   4,   1,   1,1.03057, -43.3204,1.10000,0.90000,1.10000,0.90000
   190,'ANNAPOLIS_69',  69.0000,1,   4,   1,   1,1.01077, -46.7319,1.10000,0.90000,1.10000,0.90000
   191,'SAULSBURY_69',  69.0000,1,   1,   1,   1,0.98862, -46.6679,1.10000,0.90000,1.10000,0.90000
   192,'ELIZABETHT~1',  69.0000,1,   3,   1,   1,1.01293, -42.0413,1.10000,0.90000,1.10000,0.90000
   193,'FREDERICKT~5',  69.0000,1,   4,   1,   1,1.02870, -47.3652,1.10000,0.90000,1.10000,0.90000
   194,'DE VALLS B~1',  69.0000,1,   2,   1,   1,1.02771, -40.2025,1.10000,0.90000,1.10000,0.90000
   195,'BLACK ROCK~2',  69.0000,1,   2,   1,   1,1.00836, -40.8386,1.10000,0.90000,1.10000,0.90000
   196,'IRONTON_69  ',  69.0000,1,   4,   1,   1,1.01674, -46.5846,1.10000,0.90000,1.10000,0.90000
   197,'TAMMS_69    ',  69.0000,1,   3,   1,   1,0.97442, -44.5168,1.10000,0.90000,1.10000,0.90000
   198,'DEXTER_69   ',  69.0000,1,   3,   1,   1,1.00457, -39.6092,1.10000,0.90000,1.10000,0.90000
   199,'LILBOURN_69 ',  69.0000,1,   4,   1,   1,1.02688, -41.8738,1.10000,0.90000,1.10000,0.90000
   200,'EMINENCE_69 ',  69.0000,1,   4,   1,   1,1.04000, -49.7643,1.10000,0.90000,1.10000,0.90000
   201,'OZARK_69    ',  69.0000,1,   3,   1,   1,1.00355, -42.5223,1.10000,0.90000,1.10000,0.90000
   202,'STONEFORT_69',  69.0000,1,   3,   1,   1,1.00025, -43.9308,1.10000,0.90000,1.10000,0.90000
...
0 / END OF BUS DATA, BEGIN LOAD DATA
@!   I,'ID',STAT,AREA,ZONE,      PL,        QL,        IP,        IQ,        YP,        YQ, OWNER,SCALE,INTRPT,  DGENP,     DGENQ, DGENM, LOADTYPE
  137,'1 ',1,   4,   1,     7.204,     1.180,     0.000,     0.000,     0.000,     0.000,   1,1, 0,     0.000,     0.000, 1,'            '
  138,'1 ',1,   2,   1,     3.569,     1.640,     0.000,     0.000,     0.000,     0.000,   1,1, 0,     0.000,     0.000, 1,'            '
  139,'1 ',1,   3,   1,     6.148,     2.690,     0.000,     0.000,     0.000,     0.000,   1,1, 0,     0.000,     0.000, 1,'            '
  140,'1 ',1,   2,   1,     3.710,     1.250,     0.000,     0.000,     0.000,     0.000,   1,1, 0,     0.000,     0.000, 1,'            '
  141,'1 ',1,   4,   1,     5.878,     1.230,     0.000,     0.000,     0.000,     0.000,   1,1, 0,     0.000,     0.000, 1,'            '
  142,'1 ',1,   3,   1,     3.391,     1.000,     0.000,     0.000,     0.000,     0.000,   1,1, 0,     0.000,     0.000, 1,'            '
  143,'1 ',1,   4,   1,     5.627,     0.860,     0.000,     0.000,     0.000,     0.000,   1,1, 0,     0.000,     0.000, 1,'            '
  144,'1 ',1,   2,   1,     4.533,     2.060,     0.000,     0.000,     0.000,     0.000,   1,1, 0,     0.000,     0.000, 1,'            '
  145,'1 ',1,   4,   1,     3.283,     1.090,     0.000,     0.000,     0.000,     0.000,   1,1, 0,     0.000,     0.000, 1,'            '
  146,'1 ',1,   4,   1,     4.879,     2.330,     0.000,     0.000,     0.000,     0.000,   1,1, 0,     0.000,     0.000, 1,'            '
  147,'1 ',1,   3,   1,     5.494,     2.630,     0.000,     0.000,     0.000,     0.000,   1,1, 0,     0.000,     0.000, 1,'            '
  148,'1 ',1,   3,   1,     3.575,     0.930,     0.000,     0.000,     0.000,     0.000,   1,1, 0,     0.000,     0.000, 1,'            '
  149,'1 ',1,   4,   1,     4.350,     1.480,     0.000,     0.000,     0.000,     0.000,   1,1, 0,     0.000,     0.000, 1,'            '
  150,'1 ',1,   2,   1,     3.364,     1.350,     0.000,     0.000,     0.000,     0.000,   1,1, 0,     0.000,     0.000, 1,'            '
  151,'1 ',1,   2,   1,     4.795,     1.190,     0.000,     0.000,     0.000,     0.000,   1,1, 0,     0.000,     0.000, 1,'            '
  152,'1 ',1,   4,   1,     5.683,     0.960,     0.000,     0.000,     0.000,     0.000,   1,1, 0,     0.000,     0.000, 1,'            '
  153,'1 ',1,   4,   1,     3.162,     0.670,     0.000,     0.000,     0.000,     0.000,   1,1, 0,     0.000,     0.000, 1,'            '
  154,'1 ',1,   4,   1,     4.817,     1.360,     0.000,     0.000,     0.000,     0.000,   1,1, 0,     0.000,     0.000, 1,'            '
  155,'1 ',1,   2,   1,     3.308,     1.020,     0.000,     0.000,     0.000,     0.000,   1,1, 0,     0.000,     0.000, 1,'            '
  156,'1 ',1,   1,   1,     5.397,     1.370,     0.000,     0.000,     0.000,     0.000,   1,1, 0,     0.000,     0.000, 1,'            '
  157,'1 ',1,   3,   1,     4.517,     2.210,     0.000,     0.000,     0.000,     0.000,   1,1, 0,     0.000,     0.000, 1,'            '
  158,'1 ',1,   2,   1,     3.753,     0.670,     0.000,     0.000,     0.000,     0.000,   1,1, 0,     0.000,     0.000, 1,'            '
  159,'1 ',1,   3,   1,     5.494,     1.590,     0.000,     0.000,     0.000,     0.000,   1,1, 0,     0.000,     0.000, 1,'            '
  160,'1 ',1,   4,   1,     4.015,     0.760,     0.000,     0.000,     0.000,     0.000,   1,1, 0,     0.000,     0.000, 1,'            '
  161,'1 ',1,   2,   1,     6.693,     1.650,     0.000,     0.000,     0.000,     0.000,   1,1, 0,     0.000,     0.000, 1,'            '
  162,'1 ',1,   1,   1,     4.814,     2.330,     0.000,     0.000,     0.000,     0.000,   1,1, 0,     0.000,     0.000, 1,'            '
  163,'1 ',1,   2,   1,     4.433,     0.610,     0.000,     0.000,     0.000,     0.000,   1,1, 0,     0.000,     0.000, 1,'            '
  164,'1 ',1,   4,   1,     3.032,     0.390,     0.000,     0.000,     0.000,     0.000,   1,1, 0,     0.000,     0.000, 1,'            '
  165,'1 ',1,   2,   1,     3.397,     0.500,     0.000,     0.000,     0.000,     0.000,   1,1, 0,     0.000,     0.000, 1,'            '
  166,'1 ',1,   3,   1,     5.548,     1.640,     0.000,     0.000,     0.000,     0.000,   1,1, 0,     0.000,     0.000, 1,'            '
  167,'1 ',1,   3,   1,     3.912,     1.140,     0.000,     0.000,     0.000,     0.000,   1,1, 0,     0.000,     0.000, 1,'            '
  168,'1 ',1,   4,   1,     3.834,     1.700,     0.000,     0.000,     0.000,     0.000,   1,1, 0,     0.000,     0.000, 1,'            '
  169,'1 ',1,   1,   1,     4.180,     1.520,     0.000,     0.000,     0.000,     0.000,   1,1, 0,     0.000,     0.000, 1,'            '
  170,'1 ',1,   2,   1,     4.406,     1.140,     0.000,     0.000,     0.000,     0.000,   1,1, 0,     0.000,     0.000, 1,'            '
  171,'1 ',1,   1,   1,     4.998,     1.210,     0.000,     0.000,     0.000,     0.000,   1,1, 0,     0.000,     0.000, 1,'            '
  172,'1 ',1,   2,   1,     5.179,     1.690,     0.000,     0.000,     0.000,     0.000,   1,1, 0,     0.000,     0.000, 1,'            '
  173,'1 ',1,   1,   1,     3.013,     0.880,     0.000,     0.000,     0.000,     0.000,   1,1, 0,     0.000,     0.000, 1,'            '
  174,'1 ',1,   1,   1,     4.520,     1.580,     0.000,     0.000,     0.000,     0.000,   1,1, 0,     0.000,     0.000, 1,'            '
  175,'1 ',1,   4,   1,     3.040,     1.000,     0.000,     0.000,     0.000,     0.000,   1,1, 0,     0.000,     0.000, 1,'            '
  176,'1 ',1,   1,   1,     3.064,     1.010,     0.000,     0.000,     0.000,     0.000,   1,1, 0,     0.000,     0.000, 1,'            '
  177,'1 ',1,   3,   1,     3.081,     0.930,     0.000,     0.000,     0.000,     0.000,   1,1, 0,     0.000,     0.000, 1,'            '
  178,'1 ',1,   4,   1,     5.856,     2.080,     0.000,     0.000,     0.000,     0.000,   1,1, 0,     0.000,     0.000, 1,'            '
  179,'1 ',1,   4,   1,     6.048,     0.980,     0.000,     0.000,     0.000,     0.000,   1,1, 0,     0.000,     0.000, 1,'            '
  180,'1 ',1,   1,   1,     3.113,     0.670,     0.000,     0.000,     0.000,     0.000,   1,1, 0,     0.000,     0.000, 1,'            '
  181,'1 ',1,   3,   1,     4.560,     2.210,     0.000,     0.000,     0.000,     0.000,   1,1, 0,     0.000,     0.000, 1,'            '
  182,'1 ',1,   4,   1,     3.124,     1.360,     0.000,     0.000,     0.000,     0.000,   1,1, 0,     0.000,     0.000, 1,'            '
  183,'1 ',1,   1,   1,     7.349,     3.260,     0.000,     0.000,     0.000,     0.000,   1,1, 0,     0.000,     0.000, 1,'            '
  184,'1 ',1,   4,   1,     3.221,     1.150,     0.000,     0.000,     0.000,     0.000,   1,1, 0,     0.000,     0.000, 1,'            '
  185,'1 ',1,   3,   1,     3.224,     1.050,     0.000,     0.000,     0.000,     0.000,   1,1, 0,     0.000,     0.000, 1,'            '
  186,'1 ',1,   4,   1,     5.095,     2.190,     0.000,     0.000,     0.000,     0.000,   1,1, 0,     0.000,     0.000, 1,'            '
  187,'1 ',1,   1,   1,     3.283,     0.720,     0.000,     0.000,     0.000,     0.000,   1,1, 0,     0.000,     0.000, 1,'            '
  188,'1 ',1,   3,   1,     3.310,     1.530,     0.000,     0.000,     0.000,     0.000,   1,1, 0,     0.000,     0.000, 1,'            '
  189,'1 ',1,   4,   1,     3.332,     1.490,     0.000,     0.000,     0.000,     0.000,   1,1, 0,     0.000,     0.000, 1,'            '
  190,'1 ',1,   4,   1,     3.596,     1.030,     0.000,     0.000,     0.000,     0.000,   1,1, 0,     0.000,     0.000, 1,'            '
  191,'1 ',1,   1,   1,     3.329,     0.370,     0.000,     0.000,     0.000,     0.000,   1,1, 0,     0.000,     0.000, 1,'            '
  192,'1 ',1,   3,   1,     3.340,     0.410,     0.000,     0.000,     0.000,     0.000,   1,1, 0,     0.000,     0.000, 1,'            '
  193,'1 ',1,   4,   1,     3.353,     0.400,     0.000,     0.000,     0.000,     0.000,   1,1, 0,     0.000,     0.000, 1,'            '
  194,'1 ',1,   2,   1,     3.356,     1.220,     0.000,     0.000,     0.000,     0.000,   1,1, 0,     0.000,     0.000, 1,'            '
  195,'1 ',1,   2,   1,     5.044,     2.240,     0.000,     0.000,     0.000,     0.000,   1,1, 0,     0.000,     0.000, 1,'            '
  196,'1 ',1,   4,   1,     3.372,     1.680,     0.000,     0.000,     0.000,     0.000,   1,1, 0,     0.000,     0.000, 1,'            '
  197,'1 ',1,   3,   1,     4.374,     0.990,     0.000,     0.000,     0.000,     0.000,   1,1, 0,     0.000,     0.000, 1,'            '
  198,'1 ',1,   3,   1,     3.394,     1.530,     0.000,     0.000,     0.000,     0.000,   1,1, 0,     0.000,     0.000, 1,'            '
  199,'1 ',1,   4,   1,     4.938,     1.590,     0.000,     0.000,     0.000,     0.000,   1,1, 0,     0.000,     0.000, 1,'            '
  200,'1 ',1,   4,   1,     6.248,     1.010,     0.000,     0.000,     0.000,     0.000,   1,1, 0,     0.000,     0.000, 1,'            '
  201,'1 ',1,   3,   1,     3.416,     1.300,     0.000,     0.000,     0.000,     0.000,   1,1, 0,     0.000,     0.000, 1,'            '
  202,'1 ',1,   3,   1,     4.082,     1.930,     0.000,     0.000,     0.000,     0.000,   1,1, 0,     0.000,     0.000, 1,'            '
  203,'1 ',1,   2,   1,     3.426,     1.050,     0.000,     0.000,     0.000,     0.000,   1,1, 0,     0.000,     0.000, 1,'            '
  204,'1 ',1,   1,   1,     5.935,     0.640,     0.000,     0.000,     0.000,     0.000,   1,1, 0,     0.000,     0.000, 1,'            '
  205,'1 ',1,   4,   1,     3.448,     1.080,     0.000,     0.000,     0.000,     0.000,   1,1, 0,     0.000,     0.000, 1,'            '
  206,'1 ',1,   4,   1,     3.686,     0.970,     0.000,     0.000,     0.000,     0.000,   1,1, 0,     0.000,     0.000, 1,'            '
  207,'1 ',1,   1,   1,     3.456,     1.270,     0.000,     0.000,     0.000,     0.000,   1,1, 0,     0.000,     0.000, 1,'            '
  208,'1 ',1,   4,   1,     4.061,     1.570,     0.000,     0.000,     0.000,     0.000,   1,1, 0,     0.000,     0.000, 1,'            '
  209,'1 ',1,   1,   1,     5.135,     2.350,     0.000,     0.000,     0.000,     0.000,   1,1, 0,     0.000,     0.000, 1,'            '
  210,'1 ',1,   2,   1,     3.515,     1.440,     0.000,     0.000,     0.000,     0.000,   1,1, 0,     0.000,     0.000, 1,'            '
  211,'1 ',1,   2,   1,     3.515,     1.460,     0.000,     0.000,     0.000,     0.000,   1,1, 0,     0.000,     0.000, 1,'            '
  212,'1 ',1,   2,   1,     3.537,     1.610,     0.000,     0.000,     0.000,     0.000,   1,1, 0,     0.000,     0.000, 1,'            '
  213,'1 ',1,   1,   1,     3.556,     0.680,     0.000,     0.000,     0.000,     0.000,   1,1, 0,     0.000,     0.000, 1,'            '
  214,'1 ',1,   3,   1,     3.586,     1.090,     0.000,     0.000,     0.000,     0.000,   1,1, 0,     0.000,     0.000, 1,'            '
  215,'1 ',1,   4,   1,     6.499,     1.180,     0.000,     0.000,     0.000,     0.000,   1,1, 0,     0.000,     0.000, 1,'            '
  216,'1 ',1,   4,   1,     5.675,     1.700,     0.000,     0.000,     0.000,     0.000,   1,1, 0,     0.000,     0.000, 1,'            '
  217,'1 ',1,   4,   1,     6.172,     1.500,     0.000,     0.000,     0.000,     0.000,   1,1, 0,     0.000,     0.000, 1,'            '
  218,'1 ',1,   4,   1,     3.945,     0.540,     0.000,     0.000,     0.000,     0.000,   1,1, 0,     0.000,     0.000, 1,'            '
  219,'1 ',1,   3,   1,     3.721,     1.280,     0.000,     0.000,     0.000,     0.000,   1,1, 0,     0.000,     0.000, 1,'            '
  220,'1 ',1,   4,   1,     4.822,     1.900,     0.000,     0.000,     0.000,     0.000,   1,1, 0,     0.000,     0.000, 1,'            '
  221,'1 ',1,   1,   1,     6.413,     1.680,     0.000,     0.000,     0.000,     0.000,   1,1, 0,     0.000,     0.000, 1,'            '
  222,'1 ',1,   2,   1,     3.799,     0.970,     0.000,     0.000,     0.000,     0.000,   1,1, 0,     0.000,     0.000, 1,'            '
  223,'1 ',1,   1,   1,     3.829,     1.580,     0.000,     0.000,     0.000,     0.000,   1,1, 0,     0.000,     0.000, 1,'            '
  224,'1 ',1,   1,   1,     6.240,     2.430,     0.000,     0.000,     0.000,     0.000,   1,1, 0,     0.000,     0.000, 1,'            '
  225,'1 ',1,   1,   1,     4.444,     1.360,     0.000,     0.000,     0.000,     0.000,   1,1, 0,     0.000,     0.000, 1,'            '
  226,'1 ',1,   4,   1,     6.250,     1.870,     0.000,     0.000,     0.000,     0.000,   1,1, 0,     0.000,     0.000, 1,'            '
  227,'1 ',1,   3,   1,     6.774,     1.560,     0.000,     0.000,     0.000,     0.000,   1,1, 0,     0.000,     0.000, 1,'            '
  228,'1 ',1,   3,   1,     3.923,     0.910,     0.000,     0.000,     0.000,     0.000,   1,1, 0,     0.000,     0.000, 1,'            '
  229,'1 ',1,   2,   1,     4.995,     1.530,     0.000,     0.000,     0.000,     0.000,   1,1, 0,     0.000,     0.000, 1,'            '
  230,'1 ',1,   2,   1,     3.945,     0.800,     0.000,     0.000,     0.000,     0.000,   1,1, 0,     0.000,     0.000, 1,'            '
  231,'1 ',1,   3,   1,     5.657,     1.540,     0.000,     0.000,     0.000,     0.000,   1,1, 0,     0.000,     0.000, 1,'            '
  232,'1 ',1,   4,   1,     5.775,     0.860,     0.000,     0.000,     0.000,     0.000,   1,1, 0,     0.000,     0.000, 1,'            '
  233,'1 ',1,   3,   1,     4.026,     0.530,     0.000,     0.000,     0.000,     0.000,   1,1, 0,     0.000,     0.000, 1,'            '
  234,'1 ',1,   1,   1,     4.938,     2.150,     0.000,     0.000,     0.000,     0.000,   1,1, 0,     0.000,     0.000, 1,'            '
  235,'1 ',1,   1,   1,     4.034,     0.420,     0.000,     0.000,     0.000,     0.000,   1,1, 0,     0.000,     0.000, 1,'            '
  236,'1 ',1,   3,   1,     4.072,     1.030,     0.000,     0.000,     0.000,     0.000,   1,1, 0,     0.000,     0.000, 1,'            '
  237,'1 ',1,   3,   1,     4.085,     0.930,     0.000,     0.000,     0.000,     0.000,   1,1, 0,     0.000,     0.000, 1,'            '
  238,'1 ',1,   3,   1,     4.107,     0.850,     0.000,     0.000,     0.000,     0.000,   1,1, 0,     0.000,     0.000, 1,'            '
  239,'1 ',1,   3,   1,     4.128,     1.130,     0.000,     0.000,     0.000,     0.000,   1,1, 0,     0.000,     0.000, 1,'            '
  240,'1 ',1,   2,   1,     7.266,     3.320,     0.000,     0.000,     0.000,     0.000,   1,1, 0,     0.000,     0.000, 1,'            '
  241,'1 ',1,   2,   1,     8.435,     1.160,     0.000,     0.000,     0.000,     0.000,   1,1, 0,     0.000,     0.000, 1,'            '
  242,'1 ',1,   2,   1,     4.225,     1.220,     0.000,     0.000,     0.000,     0.000,   1,1, 0,     0.000,     0.000, 1,'            '
  243,'1 ',1,   3,   1,     5.538,     1.610,     0.000,     0.000,     0.000,     0.000,   1,1, 0,     0.000,     0.000, 1,'            '
  244,'1 ',1,   2,   1,     4.371,     1.440,     0.000,     0.000,     0.000,     0.000,   1,1, 0,     0.000,     0.000, 1,'            '
  245,'1 ',1,   1,   1,     6.855,     0.740,     0.000,     0.000,     0.000,     0.000,   1,1, 0,     0.000,     0.000, 1,'            '
  246,'1 ',1,   2,   1,     4.320,     2.030,     0.000,     0.000,     0.000,     0.000,   1,1, 0,     0.000,     0.000, 1,'            '
  247,'1 ',1,   2,   1,     4.323,     1.600,     0.000,     0.000,     0.000,     0.000,   1,1, 0,     0.000,     0.000, 1,'            '
  248,'1 ',1,   1,   1,     4.369,     0.860,     0.000,     0.000,     0.000,     0.000,   1,1, 0,     0.000,     0.000, 1,'            '
  249,'1 ',1,   1,   1,     4.385,     1.670,     0.000,     0.000,     0.000,     0.000,   1,1, 0,     0.000,     0.000, 1,'            '
  250,'1 ',1,   2,   1,     4.388,     0.540,     0.000,     0.000,     0.000,     0.000,   1,1, 0,     0.000,     0.000, 1,'            '
  251,'1 ',1,   1,   1,     6.340,     2.240,     0.000,     0.000,     0.000,     0.000,   1,1, 0,     0.000,     0.000, 1,'            '
  252,'1 ',1,   2,   1,     5.168,     1.510,     0.000,     0.000,     0.000,     0.000,   1,1, 0,     0.000,     0.000, 1,'            '
  253,'1 ',1,   3,   1,     4.577,     1.820,     0.000,     0.000,     0.000,     0.000,   1,1, 0,     0.000,     0.000, 1,'            '
  254,'1 ',1,   2,   1,     6.005,     1.680,     0.000,     0.000,     0.000,     0.000,   1,1, 0,     0.000,     0.000, 1,'            '
  255,'1 ',1,   3,   1,     4.863,     1.090,     0.000,     0.000,     0.000,     0.000,   1,1, 0,     0.000,     0.000, 1,'            '
  256,'1 ',1,   1,   1,     4.639,     0.530,     0.000,     0.000,     0.000,     0.000,   1,1, 0,     0.000,     0.000, 1,'            '
  257,'1 ',1,   2,   1,     4.722,     1.860,     0.000,     0.000,     0.000,     0.000,   1,1, 0,     0.000,     0.000, 1,'            '
  258,'1 ',1,   1,   1,     4.695,     2.340,     0.000,     0.000,     0.000,     0.000,   1,1, 0,     0.000,     0.000, 1,'            '
  259,'1 ',1,   2,   1,     6.631,     1.810,     0.000,     0.000,     0.000,     0.000,   1,1, 0,     0.000,     0.000, 1,'            '
  260,'1 ',1,   4,   1,     4.709,     2.180,     0.000,     0.000,     0.000,     0.000,   1,1, 0,     0.000,     0.000, 1,'            '
  261,'1 ',1,   2,   1,     6.785,     0.990,     0.000,     0.000,     0.000,     0.000,   1,1, 0,     0.000,     0.000, 1,'            '
  262,'1 ',1,   1,   1,     9.547,     3.900,     0.000,     0.000,     0.000,     0.000,   1,1, 0,     0.000,     0.000, 1,'            '
  263,'1 ',1,   3,   1,     4.752,     2.090,     0.000,     0.000,     0.000,     0.000,   1,1, 0,     0.000,     0.000, 1,'            '
  264,'1 ',1,   2,   1,     5.009,     1.350,     0.000,     0.000,     0.000,     0.000,   1,1, 0,     0.000,     0.000, 1,'            '
  265,'1 ',1,   2,   1,     5.908,     0.980,     0.000,     0.000,     0.000,     0.000,   1,1, 0,     0.000,     0.000, 1,'            '
  266,'1 ',1,   1,   1,     4.882,     2.200,     0.000,     0.000,     0.000,     0.000,   1,1, 0,     0.000,     0.000, 1,'            '
  267,'1 ',1,   1,   1,     4.990,     0.510,     0.000,     0.000,     0.000,     0.000,   1,1, 0,     0.000,     0.000, 1,'            '
  268,'1 ',1,   3,   1,     5.000,     2.230,     0.000,     0.000,     0.000,     0.000,   1,1, 0,     0.000,     0.000, 1,'            '
  269,'1 ',1,   2,   1,     7.935,     3.130,     0.000,     0.000,     0.000,     0.000,   1,1, 0,     0.000,     0.000, 1,'            '
  270,'1 ',1,   1,   1,     5.003,     0.820,     0.000,     0.000,     0.000,     0.000,   1,1, 0,     0.000,     0.000, 1,'            '
  271,'1 ',1,   1,   1,     5.006,     1.880,     0.000,     0.000,     0.000,     0.000,   1,1, 0,     0.000,     0.000, 1,'            '
  272,'1 ',1,   1,   1,     5.011,     1.870,     0.000,     0.000,     0.000,     0.000,   1,1, 0,     0.000,     0.000, 1,'            '
  273,'1 ',1,   4,   1,     5.041,     0.820,     0.000,     0.000,     0.000,     0.000,   1,1, 0,     0.000,     0.000, 1,'            '
  274,'1 ',1,   1,   1,     5.103,     1.540,     0.000,     0.000,     0.000,     0.000,   1,1, 0,     0.000,     0.000, 1,'            '
  275,'1 ',1,   2,   1,     5.959,     2.540,     0.000,     0.000,     0.000,     0.000,   1,1, 0,     0.000,     0.000, 1,'            '
  276,'1 ',1,   1,   1,     5.181,     1.750,     0.000,     0.000,     0.000,     0.000,   1,1, 0,     0.000,     0.000, 1,'            '
  277,'1 ',1,   3,   1,     6.677,     1.860,     0.000,     0.000,     0.000,     0.000,   1,1, 0,     0.000,     0.000, 1,'            '
  278,'1 ',1,   1,   1,     5.260,     1.130,     0.000,     0.000,     0.000,     0.000,   1,1, 0,     0.000,     0.000, 1,'            '
  279,'1 ',1,   4,   1,     5.297,     1.100,     0.000,     0.000,     0.000,     0.000,   1,1, 0,     0.000,     0.000, 1,'            '
  280,'1 ',1,   1,   1,     5.319,     1.830,     0.000,     0.000,     0.000,     0.000,   1,1, 0,     0.000,     0.000, 1,'            '
  281,'1 ',1,   3,   1,     7.317,     1.840,     0.000,     0.000,     0.000,     0.000,   1,1, 0,     0.000,     0.000, 1,'            '
  282,'1 ',1,   1,   1,     5.333,     1.900,     0.000,     0.000,     0.000,     0.000,   1,1, 0,     0.000,     0.000, 1,'            '
  283,'1 ',1,   1,   1,     5.343,     1.160,     0.000,     0.000,     0.000,     0.000,   1,1, 0,     0.000,     0.000, 1,'            '
  284,'1 ',1,   2,   1,     5.357,     2.490,     0.000,     0.000,     0.000,     0.000,   1,1, 0,     0.000,     0.000, 1,'            '
  285,'1 ',1,   1,   1,     5.387,     1.760,     0.000,     0.000,     0.000,     0.000,   1,1, 0,     0.000,     0.000, 1,'            '
  286,'1 ',1,   1,   1,     5.408,     1.580,     0.000,     0.000,     0.000,     0.000,   1,1, 0,     0.000,     0.000, 1,'            '
  287,'1 ',1,   2,   1,     7.876,     3.470,     0.000,     0.000,     0.000,     0.000,   1,1, 0,     0.000,     0.000, 1,'            '
  288,'1 ',1,   3,   1,     5.432,     1.980,     0.000,     0.000,     0.000,     0.000,   1,1, 0,     0.000,     0.000, 1,'            '
  289,'1 ',1,   3,   1,     7.393,     3.060,     0.000,     0.000,     0.000,     0.000,   1,1, 0,     0.000,     0.000, 1,'            '
  290,'1 ',1,   3,   1,     6.912,     3.260,     0.000,     0.000,     0.000,     0.000,   1,1, 0,     0.000,     0.000, 1,'            '
  291,'1 ',1,   4,   1,     5.611,     2.310,     0.000,     0.000,     0.000,     0.000,   1,1, 0,     0.000,     0.000, 1,'            '
  292,'1 ',1,   2,   1,     5.789,     1.900,     0.000,     0.000,     0.000,     0.000,   1,1, 0,     0.000,     0.000, 1,'            '
  293,'1 ',1,   1,   1,     8.087,     1.370,     0.000,     0.000,     0.000,     0.000,   1,1, 0,     0.000,     0.000, 1,'            '
  294,'1 ',1,   2,   1,     8.157,     3.080,     0.000,     0.000,     0.000,     0.000,   1,1, 0,     0.000,     0.000, 1,'            '
  295,'1 ',1,   4,   1,     8.564,     1.940,     0.000,     0.000,     0.000,     0.000,   1,1, 0,     0.000,     0.000, 1,'            '
  296,'1 ',1,   1,   1,     5.683,     2.270,     0.000,     0.000,     0.000,     0.000,   1,1, 0,     0.000,     0.000, 1,'            '
  297,'1 ',1,   2,   1,     9.658,     3.620,     0.000,     0.000,     0.000,     0.000,   1,1, 0,     0.000,     0.000, 1,'            '
  298,'1 ',1,   3,   1,     5.724,     1.320,     0.000,     0.000,     0.000,     0.000,   1,1, 0,     0.000,     0.000, 1,'            '
  299,'1 ',1,   1,   1,     5.756,     0.650,     0.000,     0.000,     0.000,     0.000,   1,1, 0,     0.000,     0.000, 1,'            '
  300,'1 ',1,   3,   1,     6.669,     1.030,     0.000,     0.000,     0.000,     0.000,   1,1, 0,     0.000,     0.000, 1,'            '
  301,'1 ',1,   1,   1,     7.258,     2.880,     0.000,     0.000,     0.000,     0.000,   1,1, 0,     0.000,     0.000, 1,'            '
  302,'1 ',1,   4,   1,     5.848,     1.630,     0.000,     0.000,     0.000,     0.000,   1,1, 0,     0.000,     0.000, 1,'            '
  303,'1 ',1,   4,   1,     5.856,     2.100,     0.000,     0.000,     0.000,     0.000,   1,1, 0,     0.000,     0.000, 1,'            '
  304,'1 ',1,   3,   1,     5.878,     1.420,     0.000,     0.000,     0.000,     0.000,   1,1, 0,     0.000,     0.000, 1,'            '
  305,'1 ',1,   1,   1,     5.913,     2.900,     0.000,     0.000,     0.000,     0.000,   1,1, 0,     0.000,     0.000, 1,'            '
  306,'1 ',1,   2,   1,     7.314,     2.440,     0.000,     0.000,     0.000,     0.000,   1,1, 0,     0.000,     0.000, 1,'            '
  307,'1 ',1,   3,   1,     5.945,     2.110,     0.000,     0.000,     0.000,     0.000,   1,1, 0,     0.000,     0.000, 1,'            '
  308,'1 ',1,   4,   1,     6.780,     2.830,     0.000,     0.000,     0.000,     0.000,   1,1, 0,     0.000,     0.000, 1,'            '
  309,'1 ',1,   3,   1,     5.956,     1.900,     0.000,     0.000,     0.000,     0.000,   1,1, 0,     0.000,     0.000, 1,'            '
  310,'1 ',1,   2,   1,     7.449,     1.890,     0.000,     0.000,     0.000,     0.000,   1,1, 0,     0.000,     0.000, 1,'            '
  311,'1 ',1,   3,   1,     6.021,     1.720,     0.000,     0.000,     0.000,     0.000,   1,1, 0,     0.000,     0.000, 1,'            '
  312,'1 ',1,   2,   1,     6.024,     1.500,     0.000,     0.000,     0.000,     0.000,   1,1, 0,     0.000,     0.000, 1,'            '
  313,'1 ',1,   1,   1,     6.048,     2.430,     0.000,     0.000,     0.000,     0.000,   1,1, 0,     0.000,     0.000, 1,'            '
  314,'1 ',1,   3,   1,     6.051,     2.520,     0.000,     0.000,     0.000,     0.000,   1,1, 0,     0.000,     0.000, 1,'            '
  315,'1 ',1,   3,   1,     6.091,     1.030,     0.000,     0.000,     0.000,     0.000,   1,1, 0,     0.000,     0.000, 1,'            '
  316,'1 ',1,   3,   1,     6.126,     1.840,     0.000,     0.000,     0.000,     0.000,   1,1, 0,     0.000,     0.000, 1,'            '
  317,'1 ',1,   1,   1,     6.132,     2.520,     0.000,     0.000,     0.000,     0.000,   1,1, 0,     0.000,     0.000, 1,'            '
  318,'1 ',1,   1,   1,     6.134,     2.270,     0.000,     0.000,     0.000,     0.000,   1,1, 0,     0.000,     0.000, 1,'            '
  319,'1 ',1,   2,   1,     6.199,     3.060,     0.000,     0.000,     0.000,     0.000,   1,1, 0,     0.000,     0.000, 1,'            '
  320,'1 ',1,   1,   1,     6.242,     1.660,     0.000,     0.000,     0.000,     0.000,   1,1, 0,     0.000,     0.000, 1,'            '
  321,'1 ',1,   1,   1,     6.256,     1.390,     0.000,     0.000,     0.000,     0.000,   1,1, 0,     0.000,     0.000, 1,'            '
  322,'1 ',1,   1,   1,     6.340,     2.980,     0.000,     0.000,     0.000,     0.000,   1,1, 0,     0.000,     0.000, 1,'            '
  323,'1 ',1,   2,   1,     6.369,     0.870,     0.000,     0.000,     0.000,     0.000,   1,1, 0,     0.000,     0.000, 1,'            '
  324,'1 ',1,   1,   1,     6.396,     1.750,     0.000,     0.000,     0.000,     0.000,   1,1, 0,     0.000,     0.000, 1,'            '
  325,'1 ',1,   3,   1,     6.472,     1.150,     0.000,     0.000,     0.000,     0.000,   1,1, 0,     0.000,     0.000, 1,'            '
  326,'1 ',1,   2,   1,     6.477,     2.760,     0.000,     0.000,     0.000,     0.000,   1,1, 0,     0.000,     0.000, 1,'            '
  327,'1 ',1,   2,   1,     6.496,     1.280,     0.000,     0.000,     0.000,     0.000,   1,1, 0,     0.000,     0.000, 1,'            '
  328,'1 ',1,   3,   1,     6.496,     2.650,     0.000,     0.000,     0.000,     0.000,   1,1, 0,     0.000,     0.000, 1,'            '
  329,'1 ',1,   1,   1,     6.601,     2.930,     0.000,     0.000,     0.000,     0.000,   1,1, 0,     0.000,     0.000, 1,'            '
  330,'1 ',1,   2,   1,     9.134,     3.680,     0.000,     0.000,     0.000,     0.000,   1,1, 0,     0.000,     0.000, 1,'            '
  331,'1 ',1,   1,   1,     6.545,     1.910,     0.000,     0.000,     0.000,     0.000,   1,1, 0,     0.000,     0.000, 1,'            '
  332,'1 ',1,   1,   1,     6.591,     1.260,     0.000,     0.000,     0.000,     0.000,   1,1, 0,     0.000,     0.000, 1,'            '
  333,'1 ',1,   1,   1,     6.615,     1.590,     0.000,     0.000,     0.000,     0.000,   1,1, 0,     0.000,     0.000, 1,'            '
  334,'1 ',1,   1,   1,     7.063,     1.790,     0.000,     0.000,     0.000,     0.000,   1,1, 0,     0.000,     0.000, 1,'            '
  335,'1 ',1,   3,   1,     6.677,     2.320,     0.000,     0.000,     0.000,     0.000,   1,1, 0,     0.000,     0.000, 1,'            '
  336,'1 ',1,   1,   1,     6.745,     3.100,     0.000,     0.000,     0.000,     0.000,   1,1, 0,     0.000,     0.000, 1,'            '
...
0 / END OF LOAD DATA, BEGIN FIXED SHUNT DATA
@!   I,'ID',STATUS,  GL,        BL
0 / END OF FIXED SHUNT DATA, BEGIN GENERATOR DATA
@!   I,'ID',      PG,        QG,        QT,        QB,     VS,    IREG,     MBASE,     ZR,         ZX,         RT,         XT,     GTAP,STAT, RMPCT,      PT,        PB,    O1,  F1,    O2,  F2,    O3,  F3,    O4,  F4,WMOD,  WPF
  808,'1 ',    48.000,    -2.400,    -2.400,    -2.400,1.04000,    0,    0,    53.300,   0.00000,   0.33000,   0.00000,   0.00000,1.00000,1,  100.0,    48.000,    15.000, 0,   1,1.0000,   0,1.0000,   0,1.0000,   0,1.0000,0, 1.0000
  809,'2 ',    48.000,    -2.400,    -2.400,    -2.400,1.04000,    0,    0,    53.300,   0.00000,   0.39000,   0.00000,   0.00000,1.00000,1,  100.0,    48.000,    15.000, 0,   1,1.0000,   0,1.0000,   0,1.0000,   0,1.0000,0, 1.0000
  810,'1 ',    33.000,    15.400,    15.400,    -4.000,1.04000,    4,    0,    36.700,   0.00000,   0.50000,   0.00000,   0.00000,1.00000,1,  100.0,    33.000,    30.000, 0,   1,1.0000,   0,1.0000,   0,1.0000,   0,1.0000,0, 1.0000
  811,'2 ',    33.000,    15.400,    15.400,    -4.000,1.04000,    4,    0,    36.700,   0.00000,   0.46000,   0.00000,   0.00000,1.00000,1,  100.0,    33.000,    30.000, 0,   1,1.0000,   0,1.0000,   0,1.0000,   0,1.0000,0, 1.0000
  812,'3 ',    33.000,    15.400,    15.400,    -4.000,1.04000,    4,    0,    36.700,   0.00000,   0.28000,   0.00000,   0.00000,1.00000,1,  100.0,    33.000,    30.000, 0,   1,1.0000,   0,1.0000,   0,1.0000,   0,1.0000,0, 1.0000
  813,'4 ',    75.000,    28.890,    38.200,    -8.300,1.04000,    4,    0,    83.300,   0.00000,   0.12000,   0.00000,   0.00000,1.00000,1,  100.0,    75.000,    40.000, 0,   1,1.0000,   0,1.0000,   0,1.0000,   0,1.0000,0, 1.0000
  814,'5 ',    75.000,    28.890,    38.200,    -8.300,1.04000,    4,    0,    83.300,   0.00000,   0.12000,   0.00000,   0.00000,1.00000,1,  100.0,    75.000,    40.000, 0,   1,1.0000,   0,1.0000,   0,1.0000,   0,1.0000,0, 1.0000
  815,'1 ',    32.500,    12.500,    12.500,    -1.600,1.04000,    6,    0,    36.100,   0.00000,   0.27000,   0.00000,   0.00000,1.00000,1,  100.0,    32.500,    32.500, 0,   1,1.0000,   0,1.0000,   0,1.0000,   0,1.0000,0, 1.0000
  816,'2 ',    32.500,    12.500,    12.500,    -1.600,1.04000,    6,    0,    36.100,   0.00000,   0.86000,   0.00000,   0.00000,1.00000,1,  100.0,    32.500,    32.500, 0,   1,1.0000,   0,1.0000,   0,1.0000,   0,1.0000,0, 1.0000
  817,'3 ',    32.500,    12.500,    12.500,    -1.600,1.04000,    6,    0,    36.100,   0.00000,   0.34000,   0.00000,   0.00000,1.00000,1,  100.0,    32.500,    32.500, 0,   1,1.0000,   0,1.0000,   0,1.0000,   0,1.0000,0, 1.0000
  818,'4 ',    32.500,    12.500,    12.500,    -1.600,1.04000,    6,    0,    36.100,   0.00000,   0.25000,   0.00000,   0.00000,1.00000,1,  100.0,    32.500,    32.500, 0,   1,1.0000,   0,1.0000,   0,1.0000,   0,1.0000,0, 1.0000
  819,'1 ',    44.600,     0.250,    17.100,    -2.200,1.04000,    8,    0,    49.600,   0.00000,   0.37000,   0.00000,   0.00000,1.00000,1,  100.0,    44.600,    18.900, 0,   1,1.0000,   0,1.0000,   0,1.0000,   0,1.0000,0, 1.0000
  820,'2 ',    42.400,     0.250,    16.300,    -2.100,1.04000,    8,    0,    47.100,   0.00000,   0.56000,   0.00000,   0.00000,1.00000,1,  100.0,    42.400,    18.900, 0,   1,1.0000,   0,1.0000,   0,1.0000,   0,1.0000,0, 1.0000
  821,'3 ',    42.400,     0.250,    16.300,    -2.100,1.04000,    8,    0,    47.100,   0.00000,   0.30000,   0.00000,   0.00000,1.00000,1,  100.0,    42.400,    18.900, 0,   1,1.0000,   0,1.0000,   0,1.0000,   0,1.0000,0, 1.0000
  822,'4 ',    44.600,     0.250,    17.100,    -2.200,1.04000,    8,    0,    49.600,   0.00000,   0.44000,   0.00000,   0.00000,1.00000,1,  100.0,    44.600,    18.900, 0,   1,1.0000,   0,1.0000,   0,1.0000,   0,1.0000,0, 1.0000
  823,'5 ',    44.600,     0.250,    17.100,    -2.200,1.04000,    8,    0,    49.600,   0.00000,   0.66000,   0.00000,   0.00000,1.00000,1,  100.0,    44.600,    18.900, 0,   1,1.0000,   0,1.0000,   0,1.0000,   0,1.0000,0, 1.0000
  824,'1 ',    51.000,   -15.151,    81.600,   -21.300,1.04000,   11,    0,   194.400,   0.00000,   0.20000,   0.00000,   0.00000,1.00000,1,  100.0,   175.000,    51.000, 0,   1,1.0000,   0,1.0000,   0,1.0000,   0,1.0000,0, 1.0000
  825,'2 ',    51.000,   -15.151,    81.600,   -21.300,1.04000,   11,    0,   194.400,   0.00000,   0.20000,   0.00000,   0.00000,1.00000,1,  100.0,   175.000,    51.000, 0,   1,1.0000,   0,1.0000,   0,1.0000,   0,1.0000,0, 1.0000
  826,'3 ',    51.000,   -15.151,    81.600,   -21.300,1.04000,   11,    0,   194.400,   0.00000,   0.22000,   0.00000,   0.00000,1.00000,1,  100.0,   175.000,    51.000, 0,   1,1.0000,   0,1.0000,   0,1.0000,   0,1.0000,0, 1.0000
  827,'4 ',    51.000,   -15.151,    81.600,   -21.300,1.04000,   11,    0,   194.400,   0.00000,   0.22000,   0.00000,   0.00000,1.00000,1,  100.0,   175.000,    51.000, 0,   1,1.0000,   0,1.0000,   0,1.0000,   0,1.0000,0, 1.0000
  828,'5 ',    51.000,   -15.151,    81.600,   -21.300,1.04000,   11,    0,   194.400,   0.00000,   0.15000,   0.00000,   0.00000,1.00000,1,  100.0,   175.000,    51.000, 0,   1,1.0000,   0,1.0000,   0,1.0000,   0,1.0000,0, 1.0000
  829,'6 ',    51.000,   -15.151,    81.600,   -21.300,1.04000,   11,    0,   194.400,   0.00000,   0.26000,   0.00000,   0.00000,1.00000,1,  100.0,   175.000,    51.000, 0,   1,1.0000,   0,1.0000,   0,1.0000,   0,1.0000,0, 1.0000
  830,'7 ',    51.000,   -15.151,    81.600,   -21.300,1.04000,   11,    0,   194.400,   0.00000,   0.24000,   0.00000,   0.00000,1.00000,1,  100.0,   175.000,    51.000, 0,   1,1.0000,   0,1.0000,   0,1.0000,   0,1.0000,0, 1.0000
  831,'8 ',    51.000,   -15.151,    81.600,   -21.300,1.04000,   11,    0,   194.400,   0.00000,   0.22000,   0.00000,   0.00000,1.00000,1,  100.0,   175.000,    51.000, 0,   1,1.0000,   0,1.0000,   0,1.0000,   0,1.0000,0, 1.0000
  832,'9 ',    51.000,   -15.151,    81.600,   -21.300,1.04000,   11,    0,   194.400,   0.00000,   0.35000,   0.00000,   0.00000,1.00000,1,  100.0,   175.000,    51.000, 0,   1,1.0000,   0,1.0000,   0,1.0000,   0,1.0000,0, 1.0000
  833,'1 ',     5.000,    -0.700,     3.100,    -0.700,1.04000,   14,    0,     6.700,   0.00000,   0.49000,   0.00000,   0.00000,1.00000,1,  100.0,     6.000,     5.000, 0,   1,1.0000,   0,1.0000,   0,1.0000,   0,1.0000,0, 1.0000
  834,'2 ',     5.000,    -0.800,     3.800,    -0.800,1.04000,   14,    0,     8.300,   0.00000,   0.52000,   0.00000,   0.00000,1.00000,1,  100.0,     7.500,     5.000, 0,   1,1.0000,   0,1.0000,   0,1.0000,   0,1.0000,0, 1.0000
  835,'3 ',     5.000,    -1.800,     8.200,    -1.800,1.04000,   14,    0,    18.000,   0.00000,   0.11000,   0.00000,   0.00000,1.00000,1,  100.0,    16.200,     5.000, 0,   1,1.0000,   0,1.0000,   0,1.0000,   0,1.0000,0, 1.0000
  836,'4 ',    11.000,    -2.800,    13.000,    -2.800,1.04000,   14,    0,    28.300,   0.00000,   0.37000,   0.00000,   0.00000,1.00000,1,  100.0,    25.500,    11.000, 0,   1,1.0000,   0,1.0000,   0,1.0000,   0,1.0000,0, 1.0000
  837,'1 ',   204.000,    38.120,    38.120,    38.120,1.04000,    0,    0,   226.700,   0.00000,   0.64000,   0.00000,   0.00000,1.00000,1,  100.0,   204.000,   165.000, 0,   1,1.0000,   0,1.0000,   0,1.0000,   0,1.0000,0, 1.0000
  838,'2 ',   204.000,    38.120,    38.120,    38.120,1.04000,    0,    0,   226.700,   0.00000,   0.58000,   0.00000,   0.00000,1.00000,1,  100.0,   204.000,   165.000, 0,   1,1.0000,   0,1.0000,   0,1.0000,   0,1.0000,0, 1.0000
  839,'1 ',     6.800,     3.200,     3.200,     3.200,1.04000,   20,    0,     7.600,   0.00000,   0.27000,   0.00000,   0.00000,1.00000,1,  100.0,     6.800,     2.500, 0,   1,1.0000,   0,1.0000,   0,1.0000,   0,1.0000,0, 1.0000
  840,'2 ',     6.800,     3.200,     3.200,     3.200,1.04000,   20,    0,     7.600,   0.00000,   0.27000,   0.00000,   0.00000,1.00000,1,  100.0,     6.800,     2.500, 0,   1,1.0000,   0,1.0000,   0,1.0000,   0,1.0000,0, 1.0000
  841,'1 ',     6.200,     2.900,     2.900,    -0.800,1.04000,   21,    0,     6.900,   0.00000,   0.23000,   0.00000,   0.00000,1.00000,1,  100.0,     6.200,     5.000, 0,   1,1.0000,   0,1.0000,   0,1.0000,   0,1.0000,0, 1.0000
  842,'2 ',     6.200,     2.900,     2.900,    -0.800,1.04000,   21,    0,     6.900,   0.00000,   0.20000,   0.00000,   0.00000,1.00000,1,  100.0,     6.200,     5.000, 0,   1,1.0000,   0,1.0000,   0,1.0000,   0,1.0000,0, 1.0000
  843,'3 ',     6.400,     3.300,     3.300,    -0.700,1.04000,   21,    0,     7.100,   0.00000,   0.17000,   0.00000,   0.00000,1.00000,1,  100.0,     6.400,     5.100, 0,   1,1.0000,   0,1.0000,   0,1.0000,   0,1.0000,0, 1.0000
  844,'4 ',     6.400,     3.300,     3.300,    -0.700,1.04000,   21,    0,     7.100,   0.00000,   0.47000,   0.00000,   0.00000,1.00000,1,  100.0,     6.400,     5.100, 0,   1,1.0000,   0,1.0000,   0,1.0000,   0,1.0000,0, 1.0000
  845,'5 ',     6.200,     2.900,     2.900,    -0.800,1.04000,   21,    0,     6.900,   0.00000,   0.19000,   0.00000,   0.00000,1.00000,1,  100.0,     6.200,     5.000, 0,   1,1.0000,   0,1.0000,   0,1.0000,   0,1.0000,0, 1.0000
  846,'1 ',   170.000,   -34.696,   302.900,   -79.300,1.04000,   22,    0,   722.200,   0.00000,   0.19000,   0.00000,   0.00000,1.00000,1,  100.0,   650.000,   170.000, 0,   1,1.0000,   0,1.0000,   0,1.0000,   0,1.0000,0, 1.0000
  847,'2 ',   170.000,   -34.697,   302.900,   -79.300,1.04000,   22,    0,   722.200,   0.00000,   0.43000,   0.00000,   0.00000,1.00000,1,  100.0,   650.000,   170.000, 0,   1,1.0000,   0,1.0000,   0,1.0000,   0,1.0000,0, 1.0000
  848,'1 ',     7.105,     4.640,   176.600,   -38.500,1.05000,   25,    0,   385.600,   0.00000,   0.54000,   0.00000,   0.00000,1.00000,1,  100.0,   347.000,     0.000, 0,   1,1.0000,   0,1.0000,   0,1.0000,   0,1.0000,0, 1.0000
  849,'2 ',    69.400,     4.645,   176.600,   -38.500,1.05000,   25,    0,   385.600,   0.00000,   0.25000,   0.00000,   0.00000,1.00000,1,  100.0,   347.000,     0.000, 0,   1,1.0000,   0,1.0000,   0,1.0000,   0,1.0000,0, 1.0000
  850,'3 ',     5.000,     4.624,    11.100,    -2.900,1.05000,   25,    0,    26.600,   0.00000,   0.28000,   0.00000,   0.00000,1.00000,1,  100.0,    23.900,     5.000, 0,   1,1.0000,   0,1.0000,   0,1.0000,   0,1.0000,0, 1.0000
  851,'4 ',     5.000,     4.624,    11.100,    -2.900,1.05000,   25,    0,    26.600,   0.00000,   0.22000,   0.00000,   0.00000,1.00000,1,  100.0,    23.900,     5.000, 0,   1,1.0000,   0,1.0000,   0,1.0000,   0,1.0000,0, 1.0000
...